LTspice 24.0.12 for Windows
Circuit: * C:\Users\david\Desktop\UPB Sem VIII\Electronica De Potencia\Actividades\Rectificadores.asc
Start Time: Wed Jul 23 16:58:23 2025
d5: both pins shorted together -- ignoring.
solver = Normal
Maximum thread count: 8
tnom = 27
temp = 27
method = modified trap
Direct Newton iteration for .op point succeeded.
Total elapsed time: 0.121 seconds.

